/*---------------------------------------------------------------------------*\
| =========                 |                                                 |
| \\      /  F ield         | OpenFOAM: The Open Source CFD Toolbox           |
|  \\    /   O peration     | Version:  2.3.1                                 |
|   \\  /    A nd           | Web:      www.OpenFOAM.org                      |
|    \\/     M anipulation  |                                                 |
\*---------------------------------------------------------------------------*/
Build  : 2.3.1-bcfaaa7b8660
Exec   : execFlowFunctionObjects -noFlow -time 3000
Date   : Oct 30 2015
Time   : 13:30:51
Host   : "luka"
PID    : 11334
Case   : /home/luka/OpenFOAM/luka-2.3.1/run/pizzarelliValidation/newValidation/fine
nProcs : 1
sigFpe : Enabling floating point exception trapping (FOAM_SIGFPE).
fileModificationChecking : Monitoring run-time modified files using timeStampMaster
allowSystemOperations : Allowing user-supplied system call operations

// * * * * * * * * * * * * * * * * * * * * * * * * * * * * * * * * * * * * * //
Create time

Create mesh for time = 3000

--> FOAM Warning : 
    From function simpleFunctionObject::simpleFunctionObject
    in file simpleFunctionObject/simpleFunctionObject.C at line 109
    'outputControlMode' not found in enth0.00046875
Assuming: timeStep
--> FOAM Warning : 
    From function simpleFunctionObject::simpleFunctionObject
    in file simpleFunctionObject/simpleFunctionObject.C at line 117
    'outputInterval' not found in enth0.00046875
Assuming: 1
swak4Foam: Setting default mesh
swak4Foam: Allocating new repository for sampledSurfaces
--> FOAM Warning : 
    From function simpleFunctionObject::simpleFunctionObject
    in file simpleFunctionObject/simpleFunctionObject.C at line 109
    'outputControlMode' not found in enth0.00140625
Assuming: timeStep
--> FOAM Warning : 
    From function simpleFunctionObject::simpleFunctionObject
    in file simpleFunctionObject/simpleFunctionObject.C at line 117
    'outputInterval' not found in enth0.00140625
Assuming: 1
--> FOAM Warning : 
    From function simpleFunctionObject::simpleFunctionObject
    in file simpleFunctionObject/simpleFunctionObject.C at line 109
    'outputControlMode' not found in enth0.00234375
Assuming: timeStep
--> FOAM Warning : 
    From function simpleFunctionObject::simpleFunctionObject
    in file simpleFunctionObject/simpleFunctionObject.C at line 117
    'outputInterval' not found in enth0.00234375
Assuming: 1
--> FOAM Warning : 
    From function simpleFunctionObject::simpleFunctionObject
    in file simpleFunctionObject/simpleFunctionObject.C at line 109
    'outputControlMode' not found in enth0.00328125
Assuming: timeStep
--> FOAM Warning : 
    From function simpleFunctionObject::simpleFunctionObject
    in file simpleFunctionObject/simpleFunctionObject.C at line 117
    'outputInterval' not found in enth0.00328125
Assuming: 1
--> FOAM Warning : 
    From function simpleFunctionObject::simpleFunctionObject
    in file simpleFunctionObject/simpleFunctionObject.C at line 109
    'outputControlMode' not found in enth0.00421875
Assuming: timeStep
--> FOAM Warning : 
    From function simpleFunctionObject::simpleFunctionObject
    in file simpleFunctionObject/simpleFunctionObject.C at line 117
    'outputInterval' not found in enth0.00421875
Assuming: 1
--> FOAM Warning : 
    From function simpleFunctionObject::simpleFunctionObject
    in file simpleFunctionObject/simpleFunctionObject.C at line 109
    'outputControlMode' not found in enth0.00515625
Assuming: timeStep
--> FOAM Warning : 
    From function simpleFunctionObject::simpleFunctionObject
    in file simpleFunctionObject/simpleFunctionObject.C at line 117
    'outputInterval' not found in enth0.00515625
Assuming: 1
--> FOAM Warning : 
    From function simpleFunctionObject::simpleFunctionObject
    in file simpleFunctionObject/simpleFunctionObject.C at line 109
    'outputControlMode' not found in enth0.00609375
Assuming: timeStep
--> FOAM Warning : 
    From function simpleFunctionObject::simpleFunctionObject
    in file simpleFunctionObject/simpleFunctionObject.C at line 117
    'outputInterval' not found in enth0.00609375
Assuming: 1
--> FOAM Warning : 
    From function simpleFunctionObject::simpleFunctionObject
    in file simpleFunctionObject/simpleFunctionObject.C at line 109
    'outputControlMode' not found in enth0.00703125
Assuming: timeStep
--> FOAM Warning : 
    From function simpleFunctionObject::simpleFunctionObject
    in file simpleFunctionObject/simpleFunctionObject.C at line 117
    'outputInterval' not found in enth0.00703125
Assuming: 1
--> FOAM Warning : 
    From function simpleFunctionObject::simpleFunctionObject
    in file simpleFunctionObject/simpleFunctionObject.C at line 109
    'outputControlMode' not found in enth0.00796875
Assuming: timeStep
--> FOAM Warning : 
    From function simpleFunctionObject::simpleFunctionObject
    in file simpleFunctionObject/simpleFunctionObject.C at line 117
    'outputInterval' not found in enth0.00796875
Assuming: 1
--> FOAM Warning : 
    From function simpleFunctionObject::simpleFunctionObject
    in file simpleFunctionObject/simpleFunctionObject.C at line 109
    'outputControlMode' not found in enth0.00890625
Assuming: timeStep
--> FOAM Warning : 
    From function simpleFunctionObject::simpleFunctionObject
    in file simpleFunctionObject/simpleFunctionObject.C at line 117
    'outputInterval' not found in enth0.00890625
Assuming: 1
--> FOAM Warning : 
    From function simpleFunctionObject::simpleFunctionObject
    in file simpleFunctionObject/simpleFunctionObject.C at line 109
    'outputControlMode' not found in enth0.00984375
Assuming: timeStep
--> FOAM Warning : 
    From function simpleFunctionObject::simpleFunctionObject
    in file simpleFunctionObject/simpleFunctionObject.C at line 117
    'outputInterval' not found in enth0.00984375
Assuming: 1
--> FOAM Warning : 
    From function simpleFunctionObject::simpleFunctionObject
    in file simpleFunctionObject/simpleFunctionObject.C at line 109
    'outputControlMode' not found in enth0.01078125
Assuming: timeStep
--> FOAM Warning : 
    From function simpleFunctionObject::simpleFunctionObject
    in file simpleFunctionObject/simpleFunctionObject.C at line 117
    'outputInterval' not found in enth0.01078125
Assuming: 1
--> FOAM Warning : 
    From function simpleFunctionObject::simpleFunctionObject
    in file simpleFunctionObject/simpleFunctionObject.C at line 109
    'outputControlMode' not found in enth0.01171875
Assuming: timeStep
--> FOAM Warning : 
    From function simpleFunctionObject::simpleFunctionObject
    in file simpleFunctionObject/simpleFunctionObject.C at line 117
    'outputInterval' not found in enth0.01171875
Assuming: 1
--> FOAM Warning : 
    From function simpleFunctionObject::simpleFunctionObject
    in file simpleFunctionObject/simpleFunctionObject.C at line 109
    'outputControlMode' not found in enth0.01265625
Assuming: timeStep
--> FOAM Warning : 
    From function simpleFunctionObject::simpleFunctionObject
    in file simpleFunctionObject/simpleFunctionObject.C at line 117
    'outputInterval' not found in enth0.01265625
Assuming: 1
--> FOAM Warning : 
    From function simpleFunctionObject::simpleFunctionObject
    in file simpleFunctionObject/simpleFunctionObject.C at line 109
    'outputControlMode' not found in enth0.01359375
Assuming: timeStep
--> FOAM Warning : 
    From function simpleFunctionObject::simpleFunctionObject
    in file simpleFunctionObject/simpleFunctionObject.C at line 117
    'outputInterval' not found in enth0.01359375
Assuming: 1
--> FOAM Warning : 
    From function simpleFunctionObject::simpleFunctionObject
    in file simpleFunctionObject/simpleFunctionObject.C at line 109
    'outputControlMode' not found in enth0.01453125
Assuming: timeStep
--> FOAM Warning : 
    From function simpleFunctionObject::simpleFunctionObject
    in file simpleFunctionObject/simpleFunctionObject.C at line 117
    'outputInterval' not found in enth0.01453125
Assuming: 1
--> FOAM Warning : 
    From function simpleFunctionObject::simpleFunctionObject
    in file simpleFunctionObject/simpleFunctionObject.C at line 109
    'outputControlMode' not found in enth0.01546875
Assuming: timeStep
--> FOAM Warning : 
    From function simpleFunctionObject::simpleFunctionObject
    in file simpleFunctionObject/simpleFunctionObject.C at line 117
    'outputInterval' not found in enth0.01546875
Assuming: 1
--> FOAM Warning : 
    From function simpleFunctionObject::simpleFunctionObject
    in file simpleFunctionObject/simpleFunctionObject.C at line 109
    'outputControlMode' not found in enth0.01640625
Assuming: timeStep
--> FOAM Warning : 
    From function simpleFunctionObject::simpleFunctionObject
    in file simpleFunctionObject/simpleFunctionObject.C at line 117
    'outputInterval' not found in enth0.01640625
Assuming: 1
--> FOAM Warning : 
    From function simpleFunctionObject::simpleFunctionObject
    in file simpleFunctionObject/simpleFunctionObject.C at line 109
    'outputControlMode' not found in enth0.01734375
Assuming: timeStep
--> FOAM Warning : 
    From function simpleFunctionObject::simpleFunctionObject
    in file simpleFunctionObject/simpleFunctionObject.C at line 117
    'outputInterval' not found in enth0.01734375
Assuming: 1
--> FOAM Warning : 
    From function simpleFunctionObject::simpleFunctionObject
    in file simpleFunctionObject/simpleFunctionObject.C at line 109
    'outputControlMode' not found in enth0.01828125
Assuming: timeStep
--> FOAM Warning : 
    From function simpleFunctionObject::simpleFunctionObject
    in file simpleFunctionObject/simpleFunctionObject.C at line 117
    'outputInterval' not found in enth0.01828125
Assuming: 1
--> FOAM Warning : 
    From function simpleFunctionObject::simpleFunctionObject
    in file simpleFunctionObject/simpleFunctionObject.C at line 109
    'outputControlMode' not found in enth0.01921875
Assuming: timeStep
--> FOAM Warning : 
    From function simpleFunctionObject::simpleFunctionObject
    in file simpleFunctionObject/simpleFunctionObject.C at line 117
    'outputInterval' not found in enth0.01921875
Assuming: 1
--> FOAM Warning : 
    From function simpleFunctionObject::simpleFunctionObject
    in file simpleFunctionObject/simpleFunctionObject.C at line 109
    'outputControlMode' not found in enth0.02015625
Assuming: timeStep
--> FOAM Warning : 
    From function simpleFunctionObject::simpleFunctionObject
    in file simpleFunctionObject/simpleFunctionObject.C at line 117
    'outputInterval' not found in enth0.02015625
Assuming: 1
--> FOAM Warning : 
    From function simpleFunctionObject::simpleFunctionObject
    in file simpleFunctionObject/simpleFunctionObject.C at line 109
    'outputControlMode' not found in enth0.02109375
Assuming: timeStep
--> FOAM Warning : 
    From function simpleFunctionObject::simpleFunctionObject
    in file simpleFunctionObject/simpleFunctionObject.C at line 117
    'outputInterval' not found in enth0.02109375
Assuming: 1
--> FOAM Warning : 
    From function simpleFunctionObject::simpleFunctionObject
    in file simpleFunctionObject/simpleFunctionObject.C at line 109
    'outputControlMode' not found in enth0.02203125
Assuming: timeStep
--> FOAM Warning : 
    From function simpleFunctionObject::simpleFunctionObject
    in file simpleFunctionObject/simpleFunctionObject.C at line 117
    'outputInterval' not found in enth0.02203125
Assuming: 1
--> FOAM Warning : 
    From function simpleFunctionObject::simpleFunctionObject
    in file simpleFunctionObject/simpleFunctionObject.C at line 109
    'outputControlMode' not found in enth0.02296875
Assuming: timeStep
--> FOAM Warning : 
    From function simpleFunctionObject::simpleFunctionObject
    in file simpleFunctionObject/simpleFunctionObject.C at line 117
    'outputInterval' not found in enth0.02296875
Assuming: 1
--> FOAM Warning : 
    From function simpleFunctionObject::simpleFunctionObject
    in file simpleFunctionObject/simpleFunctionObject.C at line 109
    'outputControlMode' not found in enth0.02390625
Assuming: timeStep
--> FOAM Warning : 
    From function simpleFunctionObject::simpleFunctionObject
    in file simpleFunctionObject/simpleFunctionObject.C at line 117
    'outputInterval' not found in enth0.02390625
Assuming: 1
--> FOAM Warning : 
    From function simpleFunctionObject::simpleFunctionObject
    in file simpleFunctionObject/simpleFunctionObject.C at line 109
    'outputControlMode' not found in enth0.02484375
Assuming: timeStep
--> FOAM Warning : 
    From function simpleFunctionObject::simpleFunctionObject
    in file simpleFunctionObject/simpleFunctionObject.C at line 117
    'outputInterval' not found in enth0.02484375
Assuming: 1
--> FOAM Warning : 
    From function simpleFunctionObject::simpleFunctionObject
    in file simpleFunctionObject/simpleFunctionObject.C at line 109
    'outputControlMode' not found in enth0.02578125
Assuming: timeStep
--> FOAM Warning : 
    From function simpleFunctionObject::simpleFunctionObject
    in file simpleFunctionObject/simpleFunctionObject.C at line 117
    'outputInterval' not found in enth0.02578125
Assuming: 1
--> FOAM Warning : 
    From function simpleFunctionObject::simpleFunctionObject
    in file simpleFunctionObject/simpleFunctionObject.C at line 109
    'outputControlMode' not found in enth0.02671875
Assuming: timeStep
--> FOAM Warning : 
    From function simpleFunctionObject::simpleFunctionObject
    in file simpleFunctionObject/simpleFunctionObject.C at line 117
    'outputInterval' not found in enth0.02671875
Assuming: 1
--> FOAM Warning : 
    From function simpleFunctionObject::simpleFunctionObject
    in file simpleFunctionObject/simpleFunctionObject.C at line 109
    'outputControlMode' not found in enth0.02765625
Assuming: timeStep
--> FOAM Warning : 
    From function simpleFunctionObject::simpleFunctionObject
    in file simpleFunctionObject/simpleFunctionObject.C at line 117
    'outputInterval' not found in enth0.02765625
Assuming: 1
--> FOAM Warning : 
    From function simpleFunctionObject::simpleFunctionObject
    in file simpleFunctionObject/simpleFunctionObject.C at line 109
    'outputControlMode' not found in enth0.02859375
Assuming: timeStep
--> FOAM Warning : 
    From function simpleFunctionObject::simpleFunctionObject
    in file simpleFunctionObject/simpleFunctionObject.C at line 117
    'outputInterval' not found in enth0.02859375
Assuming: 1
--> FOAM Warning : 
    From function simpleFunctionObject::simpleFunctionObject
    in file simpleFunctionObject/simpleFunctionObject.C at line 109
    'outputControlMode' not found in enth0.02953125
Assuming: timeStep
--> FOAM Warning : 
    From function simpleFunctionObject::simpleFunctionObject
    in file simpleFunctionObject/simpleFunctionObject.C at line 117
    'outputInterval' not found in enth0.02953125
Assuming: 1
--> FOAM Warning : 
    From function simpleFunctionObject::simpleFunctionObject
    in file simpleFunctionObject/simpleFunctionObject.C at line 109
    'outputControlMode' not found in temp0.00046875
Assuming: timeStep
--> FOAM Warning : 
    From function simpleFunctionObject::simpleFunctionObject
    in file simpleFunctionObject/simpleFunctionObject.C at line 117
    'outputInterval' not found in temp0.00046875
Assuming: 1
--> FOAM Warning : 
    From function SampledSurface &SurfacesRepository::getSurface
    in file repositories/SurfacesRepository.C at line 138
    Already got a surface named cutPlane0.00046875. There is a specification for the surface here which is ignored. It is: 

{
    type            plane;
    basePoint       ( 0.00046875 0 0 );
    normalVector    ( 1 0 0 );
    interpolate     false;
}

--> FOAM Warning : 
    From function simpleFunctionObject::simpleFunctionObject
    in file simpleFunctionObject/simpleFunctionObject.C at line 109
    'outputControlMode' not found in temp0.00140625
Assuming: timeStep
--> FOAM Warning : 
    From function simpleFunctionObject::simpleFunctionObject
    in file simpleFunctionObject/simpleFunctionObject.C at line 117
    'outputInterval' not found in temp0.00140625
Assuming: 1
--> FOAM Warning : 
    From function SampledSurface &SurfacesRepository::getSurface
    in file repositories/SurfacesRepository.C at line 138
    Already got a surface named cutPlane0.00140625. There is a specification for the surface here which is ignored. It is: 

{
    type            plane;
    basePoint       ( 0.00140625 0 0 );
    normalVector    ( 1 0 0 );
    interpolate     false;
}

--> FOAM Warning : 
    From function simpleFunctionObject::simpleFunctionObject
    in file simpleFunctionObject/simpleFunctionObject.C at line 109
    'outputControlMode' not found in temp0.00234375
Assuming: timeStep
--> FOAM Warning : 
    From function simpleFunctionObject::simpleFunctionObject
    in file simpleFunctionObject/simpleFunctionObject.C at line 117
    'outputInterval' not found in temp0.00234375
Assuming: 1
--> FOAM Warning : 
    From function SampledSurface &SurfacesRepository::getSurface
    in file repositories/SurfacesRepository.C at line 138
    Already got a surface named cutPlane0.00234375. There is a specification for the surface here which is ignored. It is: 

{
    type            plane;
    basePoint       ( 0.00234375 0 0 );
    normalVector    ( 1 0 0 );
    interpolate     false;
}

--> FOAM Warning : 
    From function simpleFunctionObject::simpleFunctionObject
    in file simpleFunctionObject/simpleFunctionObject.C at line 109
    'outputControlMode' not found in temp0.00328125
Assuming: timeStep
--> FOAM Warning : 
    From function simpleFunctionObject::simpleFunctionObject
    in file simpleFunctionObject/simpleFunctionObject.C at line 117
    'outputInterval' not found in temp0.00328125
Assuming: 1
--> FOAM Warning : 
    From function SampledSurface &SurfacesRepository::getSurface
    in file repositories/SurfacesRepository.C at line 138
    Already got a surface named cutPlane0.00328125. There is a specification for the surface here which is ignored. It is: 

{
    type            plane;
    basePoint       ( 0.00328125 0 0 );
    normalVector    ( 1 0 0 );
    interpolate     false;
}

--> FOAM Warning : 
    From function simpleFunctionObject::simpleFunctionObject
    in file simpleFunctionObject/simpleFunctionObject.C at line 109
    'outputControlMode' not found in temp0.00421875
Assuming: timeStep
--> FOAM Warning : 
    From function simpleFunctionObject::simpleFunctionObject
    in file simpleFunctionObject/simpleFunctionObject.C at line 117
    'outputInterval' not found in temp0.00421875
Assuming: 1
--> FOAM Warning : 
    From function SampledSurface &SurfacesRepository::getSurface
    in file repositories/SurfacesRepository.C at line 138
    Already got a surface named cutPlane0.00421875. There is a specification for the surface here which is ignored. It is: 

{
    type            plane;
    basePoint       ( 0.00421875 0 0 );
    normalVector    ( 1 0 0 );
    interpolate     false;
}

--> FOAM Warning : 
    From function simpleFunctionObject::simpleFunctionObject
    in file simpleFunctionObject/simpleFunctionObject.C at line 109
    'outputControlMode' not found in temp0.00515625
Assuming: timeStep
--> FOAM Warning : 
    From function simpleFunctionObject::simpleFunctionObject
    in file simpleFunctionObject/simpleFunctionObject.C at line 117
    'outputInterval' not found in temp0.00515625
Assuming: 1
--> FOAM Warning : 
    From function SampledSurface &SurfacesRepository::getSurface
    in file repositories/SurfacesRepository.C at line 138
    Already got a surface named cutPlane0.00515625. There is a specification for the surface here which is ignored. It is: 

{
    type            plane;
    basePoint       ( 0.00515625 0 0 );
    normalVector    ( 1 0 0 );
    interpolate     false;
}

--> FOAM Warning : 
    From function simpleFunctionObject::simpleFunctionObject
    in file simpleFunctionObject/simpleFunctionObject.C at line 109
    'outputControlMode' not found in temp0.00609375
Assuming: timeStep
--> FOAM Warning : 
    From function simpleFunctionObject::simpleFunctionObject
    in file simpleFunctionObject/simpleFunctionObject.C at line 117
    'outputInterval' not found in temp0.00609375
Assuming: 1
--> FOAM Warning : 
    From function SampledSurface &SurfacesRepository::getSurface
    in file repositories/SurfacesRepository.C at line 138
    Already got a surface named cutPlane0.00609375. There is a specification for the surface here which is ignored. It is: 

{
    type            plane;
    basePoint       ( 0.00609375 0 0 );
    normalVector    ( 1 0 0 );
    interpolate     false;
}

--> FOAM Warning : 
    From function simpleFunctionObject::simpleFunctionObject
    in file simpleFunctionObject/simpleFunctionObject.C at line 109
    'outputControlMode' not found in temp0.00703125
Assuming: timeStep
--> FOAM Warning : 
    From function simpleFunctionObject::simpleFunctionObject
    in file simpleFunctionObject/simpleFunctionObject.C at line 117
    'outputInterval' not found in temp0.00703125
Assuming: 1
--> FOAM Warning : 
    From function SampledSurface &SurfacesRepository::getSurface
    in file repositories/SurfacesRepository.C at line 138
    Already got a surface named cutPlane0.00703125. There is a specification for the surface here which is ignored. It is: 

{
    type            plane;
    basePoint       ( 0.00703125 0 0 );
    normalVector    ( 1 0 0 );
    interpolate     false;
}

--> FOAM Warning : 
    From function simpleFunctionObject::simpleFunctionObject
    in file simpleFunctionObject/simpleFunctionObject.C at line 109
    'outputControlMode' not found in temp0.00796875
Assuming: timeStep
--> FOAM Warning : 
    From function simpleFunctionObject::simpleFunctionObject
    in file simpleFunctionObject/simpleFunctionObject.C at line 117
    'outputInterval' not found in temp0.00796875
Assuming: 1
--> FOAM Warning : 
    From function SampledSurface &SurfacesRepository::getSurface
    in file repositories/SurfacesRepository.C at line 138
    Already got a surface named cutPlane0.00796875. There is a specification for the surface here which is ignored. It is: 

{
    type            plane;
    basePoint       ( 0.00796875 0 0 );
    normalVector    ( 1 0 0 );
    interpolate     false;
}

--> FOAM Warning : 
    From function simpleFunctionObject::simpleFunctionObject
    in file simpleFunctionObject/simpleFunctionObject.C at line 109
    'outputControlMode' not found in temp0.00890625
Assuming: timeStep
--> FOAM Warning : 
    From function simpleFunctionObject::simpleFunctionObject
    in file simpleFunctionObject/simpleFunctionObject.C at line 117
    'outputInterval' not found in temp0.00890625
Assuming: 1
--> FOAM Warning : 
    From function SampledSurface &SurfacesRepository::getSurface
    in file repositories/SurfacesRepository.C at line 138
    Already got a surface named cutPlane0.00890625. There is a specification for the surface here which is ignored. It is: 

{
    type            plane;
    basePoint       ( 0.00890625 0 0 );
    normalVector    ( 1 0 0 );
    interpolate     false;
}

--> FOAM Warning : 
    From function simpleFunctionObject::simpleFunctionObject
    in file simpleFunctionObject/simpleFunctionObject.C at line 109
    'outputControlMode' not found in temp0.00984375
Assuming: timeStep
--> FOAM Warning : 
    From function simpleFunctionObject::simpleFunctionObject
    in file simpleFunctionObject/simpleFunctionObject.C at line 117
    'outputInterval' not found in temp0.00984375
Assuming: 1
--> FOAM Warning : 
    From function SampledSurface &SurfacesRepository::getSurface
    in file repositories/SurfacesRepository.C at line 138
    Already got a surface named cutPlane0.00984375. There is a specification for the surface here which is ignored. It is: 

{
    type            plane;
    basePoint       ( 0.00984375 0 0 );
    normalVector    ( 1 0 0 );
    interpolate     false;
}

--> FOAM Warning : 
    From function simpleFunctionObject::simpleFunctionObject
    in file simpleFunctionObject/simpleFunctionObject.C at line 109
    'outputControlMode' not found in temp0.01078125
Assuming: timeStep
--> FOAM Warning : 
    From function simpleFunctionObject::simpleFunctionObject
    in file simpleFunctionObject/simpleFunctionObject.C at line 117
    'outputInterval' not found in temp0.01078125
Assuming: 1
--> FOAM Warning : 
    From function SampledSurface &SurfacesRepository::getSurface
    in file repositories/SurfacesRepository.C at line 138
    Already got a surface named cutPlane0.01078125. There is a specification for the surface here which is ignored. It is: 

{
    type            plane;
    basePoint       ( 0.0107812 0 0 );
    normalVector    ( 1 0 0 );
    interpolate     false;
}

--> FOAM Warning : 
    From function simpleFunctionObject::simpleFunctionObject
    in file simpleFunctionObject/simpleFunctionObject.C at line 109
    'outputControlMode' not found in temp0.01171875
Assuming: timeStep
--> FOAM Warning : 
    From function simpleFunctionObject::simpleFunctionObject
    in file simpleFunctionObject/simpleFunctionObject.C at line 117
    'outputInterval' not found in temp0.01171875
Assuming: 1
--> FOAM Warning : 
    From function SampledSurface &SurfacesRepository::getSurface
    in file repositories/SurfacesRepository.C at line 138
    Already got a surface named cutPlane0.01171875. There is a specification for the surface here which is ignored. It is: 

{
    type            plane;
    basePoint       ( 0.0117188 0 0 );
    normalVector    ( 1 0 0 );
    interpolate     false;
}

--> FOAM Warning : 
    From function simpleFunctionObject::simpleFunctionObject
    in file simpleFunctionObject/simpleFunctionObject.C at line 109
    'outputControlMode' not found in temp0.01265625
Assuming: timeStep
--> FOAM Warning : 
    From function simpleFunctionObject::simpleFunctionObject
    in file simpleFunctionObject/simpleFunctionObject.C at line 117
    'outputInterval' not found in temp0.01265625
Assuming: 1
--> FOAM Warning : 
    From function SampledSurface &SurfacesRepository::getSurface
    in file repositories/SurfacesRepository.C at line 138
    Already got a surface named cutPlane0.01265625. There is a specification for the surface here which is ignored. It is: 

{
    type            plane;
    basePoint       ( 0.0126563 0 0 );
    normalVector    ( 1 0 0 );
    interpolate     false;
}

--> FOAM Warning : 
    From function simpleFunctionObject::simpleFunctionObject
    in file simpleFunctionObject/simpleFunctionObject.C at line 109
    'outputControlMode' not found in temp0.01359375
Assuming: timeStep
--> FOAM Warning : 
    From function simpleFunctionObject::simpleFunctionObject
    in file simpleFunctionObject/simpleFunctionObject.C at line 117
    'outputInterval' not found in temp0.01359375
Assuming: 1
--> FOAM Warning : 
    From function SampledSurface &SurfacesRepository::getSurface
    in file repositories/SurfacesRepository.C at line 138
    Already got a surface named cutPlane0.01359375. There is a specification for the surface here which is ignored. It is: 

{
    type            plane;
    basePoint       ( 0.0135937 0 0 );
    normalVector    ( 1 0 0 );
    interpolate     false;
}

--> FOAM Warning : 
    From function simpleFunctionObject::simpleFunctionObject
    in file simpleFunctionObject/simpleFunctionObject.C at line 109
    'outputControlMode' not found in temp0.01453125
Assuming: timeStep
--> FOAM Warning : 
    From function simpleFunctionObject::simpleFunctionObject
    in file simpleFunctionObject/simpleFunctionObject.C at line 117
    'outputInterval' not found in temp0.01453125
Assuming: 1
--> FOAM Warning : 
    From function SampledSurface &SurfacesRepository::getSurface
    in file repositories/SurfacesRepository.C at line 138
    Already got a surface named cutPlane0.01453125. There is a specification for the surface here which is ignored. It is: 

{
    type            plane;
    basePoint       ( 0.0145313 0 0 );
    normalVector    ( 1 0 0 );
    interpolate     false;
}

--> FOAM Warning : 
    From function simpleFunctionObject::simpleFunctionObject
    in file simpleFunctionObject/simpleFunctionObject.C at line 109
    'outputControlMode' not found in temp0.01546875
Assuming: timeStep
--> FOAM Warning : 
    From function simpleFunctionObject::simpleFunctionObject
    in file simpleFunctionObject/simpleFunctionObject.C at line 117
    'outputInterval' not found in temp0.01546875
Assuming: 1
--> FOAM Warning : 
    From function SampledSurface &SurfacesRepository::getSurface
    in file repositories/SurfacesRepository.C at line 138
    Already got a surface named cutPlane0.01546875. There is a specification for the surface here which is ignored. It is: 

{
    type            plane;
    basePoint       ( 0.0154687 0 0 );
    normalVector    ( 1 0 0 );
    interpolate     false;
}

--> FOAM Warning : 
    From function simpleFunctionObject::simpleFunctionObject
    in file simpleFunctionObject/simpleFunctionObject.C at line 109
    'outputControlMode' not found in temp0.01640625
Assuming: timeStep
--> FOAM Warning : 
    From function simpleFunctionObject::simpleFunctionObject
    in file simpleFunctionObject/simpleFunctionObject.C at line 117
    'outputInterval' not found in temp0.01640625
Assuming: 1
--> FOAM Warning : 
    From function SampledSurface &SurfacesRepository::getSurface
    in file repositories/SurfacesRepository.C at line 138
    Already got a surface named cutPlane0.01640625. There is a specification for the surface here which is ignored. It is: 

{
    type            plane;
    basePoint       ( 0.0164063 0 0 );
    normalVector    ( 1 0 0 );
    interpolate     false;
}

--> FOAM Warning : 
    From function simpleFunctionObject::simpleFunctionObject
    in file simpleFunctionObject/simpleFunctionObject.C at line 109
    'outputControlMode' not found in temp0.01734375
Assuming: timeStep
--> FOAM Warning : 
    From function simpleFunctionObject::simpleFunctionObject
    in file simpleFunctionObject/simpleFunctionObject.C at line 117
    'outputInterval' not found in temp0.01734375
Assuming: 1
--> FOAM Warning : 
    From function SampledSurface &SurfacesRepository::getSurface
    in file repositories/SurfacesRepository.C at line 138
    Already got a surface named cutPlane0.01734375. There is a specification for the surface here which is ignored. It is: 

{
    type            plane;
    basePoint       ( 0.0173438 0 0 );
    normalVector    ( 1 0 0 );
    interpolate     false;
}

--> FOAM Warning : 
    From function simpleFunctionObject::simpleFunctionObject
    in file simpleFunctionObject/simpleFunctionObject.C at line 109
    'outputControlMode' not found in temp0.01828125
Assuming: timeStep
--> FOAM Warning : 
    From function simpleFunctionObject::simpleFunctionObject
    in file simpleFunctionObject/simpleFunctionObject.C at line 117
    'outputInterval' not found in temp0.01828125
Assuming: 1
--> FOAM Warning : 
    From function SampledSurface &SurfacesRepository::getSurface
    in file repositories/SurfacesRepository.C at line 138
    Already got a surface named cutPlane0.01828125. There is a specification for the surface here which is ignored. It is: 

{
    type            plane;
    basePoint       ( 0.0182812 0 0 );
    normalVector    ( 1 0 0 );
    interpolate     false;
}

--> FOAM Warning : 
    From function simpleFunctionObject::simpleFunctionObject
    in file simpleFunctionObject/simpleFunctionObject.C at line 109
    'outputControlMode' not found in temp0.01921875
Assuming: timeStep
--> FOAM Warning : 
    From function simpleFunctionObject::simpleFunctionObject
    in file simpleFunctionObject/simpleFunctionObject.C at line 117
    'outputInterval' not found in temp0.01921875
Assuming: 1
--> FOAM Warning : 
    From function SampledSurface &SurfacesRepository::getSurface
    in file repositories/SurfacesRepository.C at line 138
    Already got a surface named cutPlane0.01921875. There is a specification for the surface here which is ignored. It is: 

{
    type            plane;
    basePoint       ( 0.0192187 0 0 );
    normalVector    ( 1 0 0 );
    interpolate     false;
}

--> FOAM Warning : 
    From function simpleFunctionObject::simpleFunctionObject
    in file simpleFunctionObject/simpleFunctionObject.C at line 109
    'outputControlMode' not found in temp0.02015625
Assuming: timeStep
--> FOAM Warning : 
    From function simpleFunctionObject::simpleFunctionObject
    in file simpleFunctionObject/simpleFunctionObject.C at line 117
    'outputInterval' not found in temp0.02015625
Assuming: 1
--> FOAM Warning : 
    From function SampledSurface &SurfacesRepository::getSurface
    in file repositories/SurfacesRepository.C at line 138
    Already got a surface named cutPlane0.02015625. There is a specification for the surface here which is ignored. It is: 

{
    type            plane;
    basePoint       ( 0.0201563 0 0 );
    normalVector    ( 1 0 0 );
    interpolate     false;
}

--> FOAM Warning : 
    From function simpleFunctionObject::simpleFunctionObject
    in file simpleFunctionObject/simpleFunctionObject.C at line 109
    'outputControlMode' not found in temp0.02109375
Assuming: timeStep
--> FOAM Warning : 
    From function simpleFunctionObject::simpleFunctionObject
    in file simpleFunctionObject/simpleFunctionObject.C at line 117
    'outputInterval' not found in temp0.02109375
Assuming: 1
--> FOAM Warning : 
    From function SampledSurface &SurfacesRepository::getSurface
    in file repositories/SurfacesRepository.C at line 138
    Already got a surface named cutPlane0.02109375. There is a specification for the surface here which is ignored. It is: 

{
    type            plane;
    basePoint       ( 0.0210938 0 0 );
    normalVector    ( 1 0 0 );
    interpolate     false;
}

--> FOAM Warning : 
    From function simpleFunctionObject::simpleFunctionObject
    in file simpleFunctionObject/simpleFunctionObject.C at line 109
    'outputControlMode' not found in temp0.02203125
Assuming: timeStep
--> FOAM Warning : 
    From function simpleFunctionObject::simpleFunctionObject
    in file simpleFunctionObject/simpleFunctionObject.C at line 117
    'outputInterval' not found in temp0.02203125
Assuming: 1
--> FOAM Warning : 
    From function SampledSurface &SurfacesRepository::getSurface
    in file repositories/SurfacesRepository.C at line 138
    Already got a surface named cutPlane0.02203125. There is a specification for the surface here which is ignored. It is: 

{
    type            plane;
    basePoint       ( 0.0220312 0 0 );
    normalVector    ( 1 0 0 );
    interpolate     false;
}

--> FOAM Warning : 
    From function simpleFunctionObject::simpleFunctionObject
    in file simpleFunctionObject/simpleFunctionObject.C at line 109
    'outputControlMode' not found in temp0.02296875
Assuming: timeStep
--> FOAM Warning : 
    From function simpleFunctionObject::simpleFunctionObject
    in file simpleFunctionObject/simpleFunctionObject.C at line 117
    'outputInterval' not found in temp0.02296875
Assuming: 1
--> FOAM Warning : 
    From function SampledSurface &SurfacesRepository::getSurface
    in file repositories/SurfacesRepository.C at line 138
    Already got a surface named cutPlane0.02296875. There is a specification for the surface here which is ignored. It is: 

{
    type            plane;
    basePoint       ( 0.0229687 0 0 );
    normalVector    ( 1 0 0 );
    interpolate     false;
}

--> FOAM Warning : 
    From function simpleFunctionObject::simpleFunctionObject
    in file simpleFunctionObject/simpleFunctionObject.C at line 109
    'outputControlMode' not found in temp0.02390625
Assuming: timeStep
--> FOAM Warning : 
    From function simpleFunctionObject::simpleFunctionObject
    in file simpleFunctionObject/simpleFunctionObject.C at line 117
    'outputInterval' not found in temp0.02390625
Assuming: 1
--> FOAM Warning : 
    From function SampledSurface &SurfacesRepository::getSurface
    in file repositories/SurfacesRepository.C at line 138
    Already got a surface named cutPlane0.02390625. There is a specification for the surface here which is ignored. It is: 

{
    type            plane;
    basePoint       ( 0.0239063 0 0 );
    normalVector    ( 1 0 0 );
    interpolate     false;
}

--> FOAM Warning : 
    From function simpleFunctionObject::simpleFunctionObject
    in file simpleFunctionObject/simpleFunctionObject.C at line 109
    'outputControlMode' not found in temp0.02484375
Assuming: timeStep
--> FOAM Warning : 
    From function simpleFunctionObject::simpleFunctionObject
    in file simpleFunctionObject/simpleFunctionObject.C at line 117
    'outputInterval' not found in temp0.02484375
Assuming: 1
--> FOAM Warning : 
    From function SampledSurface &SurfacesRepository::getSurface
    in file repositories/SurfacesRepository.C at line 138
    Already got a surface named cutPlane0.02484375. There is a specification for the surface here which is ignored. It is: 

{
    type            plane;
    basePoint       ( 0.0248438 0 0 );
    normalVector    ( 1 0 0 );
    interpolate     false;
}

--> FOAM Warning : 
    From function simpleFunctionObject::simpleFunctionObject
    in file simpleFunctionObject/simpleFunctionObject.C at line 109
    'outputControlMode' not found in temp0.02578125
Assuming: timeStep
--> FOAM Warning : 
    From function simpleFunctionObject::simpleFunctionObject
    in file simpleFunctionObject/simpleFunctionObject.C at line 117
    'outputInterval' not found in temp0.02578125
Assuming: 1
--> FOAM Warning : 
    From function SampledSurface &SurfacesRepository::getSurface
    in file repositories/SurfacesRepository.C at line 138
    Already got a surface named cutPlane0.02578125. There is a specification for the surface here which is ignored. It is: 

{
    type            plane;
    basePoint       ( 0.0257812 0 0 );
    normalVector    ( 1 0 0 );
    interpolate     false;
}

--> FOAM Warning : 
    From function simpleFunctionObject::simpleFunctionObject
    in file simpleFunctionObject/simpleFunctionObject.C at line 109
    'outputControlMode' not found in temp0.02671875
Assuming: timeStep
--> FOAM Warning : 
    From function simpleFunctionObject::simpleFunctionObject
    in file simpleFunctionObject/simpleFunctionObject.C at line 117
    'outputInterval' not found in temp0.02671875
Assuming: 1
--> FOAM Warning : 
    From function SampledSurface &SurfacesRepository::getSurface
    in file repositories/SurfacesRepository.C at line 138
    Already got a surface named cutPlane0.02671875. There is a specification for the surface here which is ignored. It is: 

{
    type            plane;
    basePoint       ( 0.0267187 0 0 );
    normalVector    ( 1 0 0 );
    interpolate     false;
}

--> FOAM Warning : 
    From function simpleFunctionObject::simpleFunctionObject
    in file simpleFunctionObject/simpleFunctionObject.C at line 109
    'outputControlMode' not found in temp0.02765625
Assuming: timeStep
--> FOAM Warning : 
    From function simpleFunctionObject::simpleFunctionObject
    in file simpleFunctionObject/simpleFunctionObject.C at line 117
    'outputInterval' not found in temp0.02765625
Assuming: 1
--> FOAM Warning : 
    From function SampledSurface &SurfacesRepository::getSurface
    in file repositories/SurfacesRepository.C at line 138
    Already got a surface named cutPlane0.02765625. There is a specification for the surface here which is ignored. It is: 

{
    type            plane;
    basePoint       ( 0.0276563 0 0 );
    normalVector    ( 1 0 0 );
    interpolate     false;
}

--> FOAM Warning : 
    From function simpleFunctionObject::simpleFunctionObject
    in file simpleFunctionObject/simpleFunctionObject.C at line 109
    'outputControlMode' not found in temp0.02859375
Assuming: timeStep
--> FOAM Warning : 
    From function simpleFunctionObject::simpleFunctionObject
    in file simpleFunctionObject/simpleFunctionObject.C at line 117
    'outputInterval' not found in temp0.02859375
Assuming: 1
--> FOAM Warning : 
    From function SampledSurface &SurfacesRepository::getSurface
    in file repositories/SurfacesRepository.C at line 138
    Already got a surface named cutPlane0.02859375. There is a specification for the surface here which is ignored. It is: 

{
    type            plane;
    basePoint       ( 0.0285938 0 0 );
    normalVector    ( 1 0 0 );
    interpolate     false;
}

--> FOAM Warning : 
    From function simpleFunctionObject::simpleFunctionObject
    in file simpleFunctionObject/simpleFunctionObject.C at line 109
    'outputControlMode' not found in temp0.02953125
Assuming: timeStep
--> FOAM Warning : 
    From function simpleFunctionObject::simpleFunctionObject
    in file simpleFunctionObject/simpleFunctionObject.C at line 117
    'outputInterval' not found in temp0.02953125
Assuming: 1
--> FOAM Warning : 
    From function SampledSurface &SurfacesRepository::getSurface
    in file repositories/SurfacesRepository.C at line 138
    Already got a surface named cutPlane0.02953125. There is a specification for the surface here which is ignored. It is: 

{
    type            plane;
    basePoint       ( 0.0295312 0 0 );
    normalVector    ( 1 0 0 );
    interpolate     false;
}

--> FOAM Warning : 
    From function simpleFunctionObject::simpleFunctionObject
    in file simpleFunctionObject/simpleFunctionObject.C at line 109
    'outputControlMode' not found in heatFlux0.00046875
Assuming: timeStep
--> FOAM Warning : 
    From function simpleFunctionObject::simpleFunctionObject
    in file simpleFunctionObject/simpleFunctionObject.C at line 117
    'outputInterval' not found in heatFlux0.00046875
Assuming: 1
--> FOAM Warning : 
    From function simpleFunctionObject::simpleFunctionObject
    in file simpleFunctionObject/simpleFunctionObject.C at line 109
    'outputControlMode' not found in heatFlux0.00140625
Assuming: timeStep
--> FOAM Warning : 
    From function simpleFunctionObject::simpleFunctionObject
    in file simpleFunctionObject/simpleFunctionObject.C at line 117
    'outputInterval' not found in heatFlux0.00140625
Assuming: 1
--> FOAM Warning : 
    From function simpleFunctionObject::simpleFunctionObject
    in file simpleFunctionObject/simpleFunctionObject.C at line 109
    'outputControlMode' not found in heatFlux0.00234375
Assuming: timeStep
--> FOAM Warning : 
    From function simpleFunctionObject::simpleFunctionObject
    in file simpleFunctionObject/simpleFunctionObject.C at line 117
    'outputInterval' not found in heatFlux0.00234375
Assuming: 1
--> FOAM Warning : 
    From function simpleFunctionObject::simpleFunctionObject
    in file simpleFunctionObject/simpleFunctionObject.C at line 109
    'outputControlMode' not found in heatFlux0.00328125
Assuming: timeStep
--> FOAM Warning : 
    From function simpleFunctionObject::simpleFunctionObject
    in file simpleFunctionObject/simpleFunctionObject.C at line 117
    'outputInterval' not found in heatFlux0.00328125
Assuming: 1
--> FOAM Warning : 
    From function simpleFunctionObject::simpleFunctionObject
    in file simpleFunctionObject/simpleFunctionObject.C at line 109
    'outputControlMode' not found in heatFlux0.00421875
Assuming: timeStep
--> FOAM Warning : 
    From function simpleFunctionObject::simpleFunctionObject
    in file simpleFunctionObject/simpleFunctionObject.C at line 117
    'outputInterval' not found in heatFlux0.00421875
Assuming: 1
--> FOAM Warning : 
    From function simpleFunctionObject::simpleFunctionObject
    in file simpleFunctionObject/simpleFunctionObject.C at line 109
    'outputControlMode' not found in heatFlux0.00515625
Assuming: timeStep
--> FOAM Warning : 
    From function simpleFunctionObject::simpleFunctionObject
    in file simpleFunctionObject/simpleFunctionObject.C at line 117
    'outputInterval' not found in heatFlux0.00515625
Assuming: 1
--> FOAM Warning : 
    From function simpleFunctionObject::simpleFunctionObject
    in file simpleFunctionObject/simpleFunctionObject.C at line 109
    'outputControlMode' not found in heatFlux0.00609375
Assuming: timeStep
--> FOAM Warning : 
    From function simpleFunctionObject::simpleFunctionObject
    in file simpleFunctionObject/simpleFunctionObject.C at line 117
    'outputInterval' not found in heatFlux0.00609375
Assuming: 1
--> FOAM Warning : 
    From function simpleFunctionObject::simpleFunctionObject
    in file simpleFunctionObject/simpleFunctionObject.C at line 109
    'outputControlMode' not found in heatFlux0.00703125
Assuming: timeStep
--> FOAM Warning : 
    From function simpleFunctionObject::simpleFunctionObject
    in file simpleFunctionObject/simpleFunctionObject.C at line 117
    'outputInterval' not found in heatFlux0.00703125
Assuming: 1
--> FOAM Warning : 
    From function simpleFunctionObject::simpleFunctionObject
    in file simpleFunctionObject/simpleFunctionObject.C at line 109
    'outputControlMode' not found in heatFlux0.00796875
Assuming: timeStep
--> FOAM Warning : 
    From function simpleFunctionObject::simpleFunctionObject
    in file simpleFunctionObject/simpleFunctionObject.C at line 117
    'outputInterval' not found in heatFlux0.00796875
Assuming: 1
--> FOAM Warning : 
    From function simpleFunctionObject::simpleFunctionObject
    in file simpleFunctionObject/simpleFunctionObject.C at line 109
    'outputControlMode' not found in heatFlux0.00890625
Assuming: timeStep
--> FOAM Warning : 
    From function simpleFunctionObject::simpleFunctionObject
    in file simpleFunctionObject/simpleFunctionObject.C at line 117
    'outputInterval' not found in heatFlux0.00890625
Assuming: 1
--> FOAM Warning : 
    From function simpleFunctionObject::simpleFunctionObject
    in file simpleFunctionObject/simpleFunctionObject.C at line 109
    'outputControlMode' not found in heatFlux0.00984375
Assuming: timeStep
--> FOAM Warning : 
    From function simpleFunctionObject::simpleFunctionObject
    in file simpleFunctionObject/simpleFunctionObject.C at line 117
    'outputInterval' not found in heatFlux0.00984375
Assuming: 1
--> FOAM Warning : 
    From function simpleFunctionObject::simpleFunctionObject
    in file simpleFunctionObject/simpleFunctionObject.C at line 109
    'outputControlMode' not found in heatFlux0.01078125
Assuming: timeStep
--> FOAM Warning : 
    From function simpleFunctionObject::simpleFunctionObject
    in file simpleFunctionObject/simpleFunctionObject.C at line 117
    'outputInterval' not found in heatFlux0.01078125
Assuming: 1
--> FOAM Warning : 
    From function simpleFunctionObject::simpleFunctionObject
    in file simpleFunctionObject/simpleFunctionObject.C at line 109
    'outputControlMode' not found in heatFlux0.01171875
Assuming: timeStep
--> FOAM Warning : 
    From function simpleFunctionObject::simpleFunctionObject
    in file simpleFunctionObject/simpleFunctionObject.C at line 117
    'outputInterval' not found in heatFlux0.01171875
Assuming: 1
--> FOAM Warning : 
    From function simpleFunctionObject::simpleFunctionObject
    in file simpleFunctionObject/simpleFunctionObject.C at line 109
    'outputControlMode' not found in heatFlux0.01265625
Assuming: timeStep
--> FOAM Warning : 
    From function simpleFunctionObject::simpleFunctionObject
    in file simpleFunctionObject/simpleFunctionObject.C at line 117
    'outputInterval' not found in heatFlux0.01265625
Assuming: 1
--> FOAM Warning : 
    From function simpleFunctionObject::simpleFunctionObject
    in file simpleFunctionObject/simpleFunctionObject.C at line 109
    'outputControlMode' not found in heatFlux0.01359375
Assuming: timeStep
--> FOAM Warning : 
    From function simpleFunctionObject::simpleFunctionObject
    in file simpleFunctionObject/simpleFunctionObject.C at line 117
    'outputInterval' not found in heatFlux0.01359375
Assuming: 1
--> FOAM Warning : 
    From function simpleFunctionObject::simpleFunctionObject
    in file simpleFunctionObject/simpleFunctionObject.C at line 109
    'outputControlMode' not found in heatFlux0.01453125
Assuming: timeStep
--> FOAM Warning : 
    From function simpleFunctionObject::simpleFunctionObject
    in file simpleFunctionObject/simpleFunctionObject.C at line 117
    'outputInterval' not found in heatFlux0.01453125
Assuming: 1
--> FOAM Warning : 
    From function simpleFunctionObject::simpleFunctionObject
    in file simpleFunctionObject/simpleFunctionObject.C at line 109
    'outputControlMode' not found in heatFlux0.01546875
Assuming: timeStep
--> FOAM Warning : 
    From function simpleFunctionObject::simpleFunctionObject
    in file simpleFunctionObject/simpleFunctionObject.C at line 117
    'outputInterval' not found in heatFlux0.01546875
Assuming: 1
--> FOAM Warning : 
    From function simpleFunctionObject::simpleFunctionObject
    in file simpleFunctionObject/simpleFunctionObject.C at line 109
    'outputControlMode' not found in heatFlux0.01640625
Assuming: timeStep
--> FOAM Warning : 
    From function simpleFunctionObject::simpleFunctionObject
    in file simpleFunctionObject/simpleFunctionObject.C at line 117
    'outputInterval' not found in heatFlux0.01640625
Assuming: 1
--> FOAM Warning : 
    From function simpleFunctionObject::simpleFunctionObject
    in file simpleFunctionObject/simpleFunctionObject.C at line 109
    'outputControlMode' not found in heatFlux0.01734375
Assuming: timeStep
--> FOAM Warning : 
    From function simpleFunctionObject::simpleFunctionObject
    in file simpleFunctionObject/simpleFunctionObject.C at line 117
    'outputInterval' not found in heatFlux0.01734375
Assuming: 1
--> FOAM Warning : 
    From function simpleFunctionObject::simpleFunctionObject
    in file simpleFunctionObject/simpleFunctionObject.C at line 109
    'outputControlMode' not found in heatFlux0.01828125
Assuming: timeStep
--> FOAM Warning : 
    From function simpleFunctionObject::simpleFunctionObject
    in file simpleFunctionObject/simpleFunctionObject.C at line 117
    'outputInterval' not found in heatFlux0.01828125
Assuming: 1
--> FOAM Warning : 
    From function simpleFunctionObject::simpleFunctionObject
    in file simpleFunctionObject/simpleFunctionObject.C at line 109
    'outputControlMode' not found in heatFlux0.01921875
Assuming: timeStep
--> FOAM Warning : 
    From function simpleFunctionObject::simpleFunctionObject
    in file simpleFunctionObject/simpleFunctionObject.C at line 117
    'outputInterval' not found in heatFlux0.01921875
Assuming: 1
--> FOAM Warning : 
    From function simpleFunctionObject::simpleFunctionObject
    in file simpleFunctionObject/simpleFunctionObject.C at line 109
    'outputControlMode' not found in heatFlux0.02015625
Assuming: timeStep
--> FOAM Warning : 
    From function simpleFunctionObject::simpleFunctionObject
    in file simpleFunctionObject/simpleFunctionObject.C at line 117
    'outputInterval' not found in heatFlux0.02015625
Assuming: 1
--> FOAM Warning : 
    From function simpleFunctionObject::simpleFunctionObject
    in file simpleFunctionObject/simpleFunctionObject.C at line 109
    'outputControlMode' not found in heatFlux0.02109375
Assuming: timeStep
--> FOAM Warning : 
    From function simpleFunctionObject::simpleFunctionObject
    in file simpleFunctionObject/simpleFunctionObject.C at line 117
    'outputInterval' not found in heatFlux0.02109375
Assuming: 1
--> FOAM Warning : 
    From function simpleFunctionObject::simpleFunctionObject
    in file simpleFunctionObject/simpleFunctionObject.C at line 109
    'outputControlMode' not found in heatFlux0.02203125
Assuming: timeStep
--> FOAM Warning : 
    From function simpleFunctionObject::simpleFunctionObject
    in file simpleFunctionObject/simpleFunctionObject.C at line 117
    'outputInterval' not found in heatFlux0.02203125
Assuming: 1
--> FOAM Warning : 
    From function simpleFunctionObject::simpleFunctionObject
    in file simpleFunctionObject/simpleFunctionObject.C at line 109
    'outputControlMode' not found in heatFlux0.02296875
Assuming: timeStep
--> FOAM Warning : 
    From function simpleFunctionObject::simpleFunctionObject
    in file simpleFunctionObject/simpleFunctionObject.C at line 117
    'outputInterval' not found in heatFlux0.02296875
Assuming: 1
--> FOAM Warning : 
    From function simpleFunctionObject::simpleFunctionObject
    in file simpleFunctionObject/simpleFunctionObject.C at line 109
    'outputControlMode' not found in heatFlux0.02390625
Assuming: timeStep
--> FOAM Warning : 
    From function simpleFunctionObject::simpleFunctionObject
    in file simpleFunctionObject/simpleFunctionObject.C at line 117
    'outputInterval' not found in heatFlux0.02390625
Assuming: 1
--> FOAM Warning : 
    From function simpleFunctionObject::simpleFunctionObject
    in file simpleFunctionObject/simpleFunctionObject.C at line 109
    'outputControlMode' not found in heatFlux0.02484375
Assuming: timeStep
--> FOAM Warning : 
    From function simpleFunctionObject::simpleFunctionObject
    in file simpleFunctionObject/simpleFunctionObject.C at line 117
    'outputInterval' not found in heatFlux0.02484375
Assuming: 1
--> FOAM Warning : 
    From function simpleFunctionObject::simpleFunctionObject
    in file simpleFunctionObject/simpleFunctionObject.C at line 109
    'outputControlMode' not found in heatFlux0.02578125
Assuming: timeStep
--> FOAM Warning : 
    From function simpleFunctionObject::simpleFunctionObject
    in file simpleFunctionObject/simpleFunctionObject.C at line 117
    'outputInterval' not found in heatFlux0.02578125
Assuming: 1
--> FOAM Warning : 
    From function simpleFunctionObject::simpleFunctionObject
    in file simpleFunctionObject/simpleFunctionObject.C at line 109
    'outputControlMode' not found in heatFlux0.02671875
Assuming: timeStep
--> FOAM Warning : 
    From function simpleFunctionObject::simpleFunctionObject
    in file simpleFunctionObject/simpleFunctionObject.C at line 117
    'outputInterval' not found in heatFlux0.02671875
Assuming: 1
--> FOAM Warning : 
    From function simpleFunctionObject::simpleFunctionObject
    in file simpleFunctionObject/simpleFunctionObject.C at line 109
    'outputControlMode' not found in heatFlux0.02765625
Assuming: timeStep
--> FOAM Warning : 
    From function simpleFunctionObject::simpleFunctionObject
    in file simpleFunctionObject/simpleFunctionObject.C at line 117
    'outputInterval' not found in heatFlux0.02765625
Assuming: 1
--> FOAM Warning : 
    From function simpleFunctionObject::simpleFunctionObject
    in file simpleFunctionObject/simpleFunctionObject.C at line 109
    'outputControlMode' not found in heatFlux0.02859375
Assuming: timeStep
--> FOAM Warning : 
    From function simpleFunctionObject::simpleFunctionObject
    in file simpleFunctionObject/simpleFunctionObject.C at line 117
    'outputInterval' not found in heatFlux0.02859375
Assuming: 1
--> FOAM Warning : 
    From function simpleFunctionObject::simpleFunctionObject
    in file simpleFunctionObject/simpleFunctionObject.C at line 109
    'outputControlMode' not found in heatFlux0.02953125
Assuming: timeStep
--> FOAM Warning : 
    From function simpleFunctionObject::simpleFunctionObject
    in file simpleFunctionObject/simpleFunctionObject.C at line 117
    'outputInterval' not found in heatFlux0.02953125
Assuming: 1
Time = 3000
    Operating in no-flow mode; no models will be loaded. All vol, surface and point fields will be loaded.
Reading volScalarField alphat
Reading volScalarField Cp
Reading volScalarField kappa
Reading volScalarField myWallHeatFlux
Reading volScalarField mut
Reading volScalarField rho
Reading volScalarField he
Reading volScalarField p
Reading volScalarField T
Reading volScalarField nuTilda
Reading volScalarField yPlus
Reading volVectorField U
Reading surfaceScalarField phi
--> FOAM Warning : 
    From function IOobject::readHeader(Istream&)
    in file db/IOobject/IOobjectReadHeader.C at line 89
    Reading "/home/luka/OpenFOAM/luka-2.3.1/run/pizzarelliValidation/newValidation/fine/constant/mu" at line 1
    First token could not be read or is not the keyword 'FoamFile'

Check header is of the form:

/*--------------------------------*- C++ -*----------------------------------*\
| =========                 |                                                 |
| \\      /  F ield         | OpenFOAM: The Open Source CFD Toolbox           |
|  \\    /   O peration     | Version:  2.3.1                                 |
|   \\  /    A nd           | Web:      www.OpenFOAM.org                      |
|    \\/     M anipulation  |                                                 |
\*---------------------------------------------------------------------------*/
FoamFile
{
    version     2.0;
    format      ascii;
    class       IOobject;
    location    "constant";
    object      mu;
}
// * * * * * * * * * * * * * * * * * * * * * * * * * * * * * * * * * * * * * //

--> FOAM Warning : 
    From function IOobject::readHeader(Istream&)
    in file db/IOobject/IOobjectReadHeader.C at line 89
    Reading "/home/luka/OpenFOAM/luka-2.3.1/run/pizzarelliValidation/newValidation/fine/constant/cpMcv" at line 1
    First token could not be read or is not the keyword 'FoamFile'

Check header is of the form:

/*--------------------------------*- C++ -*----------------------------------*\
| =========                 |                                                 |
| \\      /  F ield         | OpenFOAM: The Open Source CFD Toolbox           |
|  \\    /   O peration     | Version:  2.3.1                                 |
|   \\  /    A nd           | Web:      www.OpenFOAM.org                      |
|    \\/     M anipulation  |                                                 |
\*---------------------------------------------------------------------------*/
FoamFile
{
    version     2.0;
    format      ascii;
    class       IOobject;
    location    "constant";
    object      cpMcv;
}
// * * * * * * * * * * * * * * * * * * * * * * * * * * * * * * * * * * * * * //

--> FOAM Warning : 
    From function IOobject::readHeader(Istream&)
    in file db/IOobject/IOobjectReadHeader.C at line 89
    Reading "/home/luka/OpenFOAM/luka-2.3.1/run/pizzarelliValidation/newValidation/fine/constant/kappa" at line 1
    First token could not be read or is not the keyword 'FoamFile'

Check header is of the form:

/*--------------------------------*- C++ -*----------------------------------*\
| =========                 |                                                 |
| \\      /  F ield         | OpenFOAM: The Open Source CFD Toolbox           |
|  \\    /   O peration     | Version:  2.3.1                                 |
|   \\  /    A nd           | Web:      www.OpenFOAM.org                      |
|    \\/     M anipulation  |                                                 |
\*---------------------------------------------------------------------------*/
FoamFile
{
    version     2.0;
    format      ascii;
    class       IOobject;
    location    "constant";
    object      kappa;
}
// * * * * * * * * * * * * * * * * * * * * * * * * * * * * * * * * * * * * * //

--> FOAM Warning : 
    From function IOobject::readHeader(Istream&)
    in file db/IOobject/IOobjectReadHeader.C at line 89
    Reading "/home/luka/OpenFOAM/luka-2.3.1/run/pizzarelliValidation/newValidation/fine/constant/cp" at line 1
    First token could not be read or is not the keyword 'FoamFile'

Check header is of the form:

/*--------------------------------*- C++ -*----------------------------------*\
| =========                 |                                                 |
| \\      /  F ield         | OpenFOAM: The Open Source CFD Toolbox           |
|  \\    /   O peration     | Version:  2.3.1                                 |
|   \\  /    A nd           | Web:      www.OpenFOAM.org                      |
|    \\/     M anipulation  |                                                 |
\*---------------------------------------------------------------------------*/
FoamFile
{
    version     2.0;
    format      ascii;
    class       IOobject;
    location    "constant";
    object      cp;
}
// * * * * * * * * * * * * * * * * * * * * * * * * * * * * * * * * * * * * * //

--> FOAM Warning : 
    From function IOobject::readHeader(Istream&)
    in file db/IOobject/IOobjectReadHeader.C at line 89
    Reading "/home/luka/OpenFOAM/luka-2.3.1/run/pizzarelliValidation/newValidation/fine/constant/rho" at line 1
    First token could not be read or is not the keyword 'FoamFile'

Check header is of the form:

/*--------------------------------*- C++ -*----------------------------------*\
| =========                 |                                                 |
| \\      /  F ield         | OpenFOAM: The Open Source CFD Toolbox           |
|  \\    /   O peration     | Version:  2.3.1                                 |
|   \\  /    A nd           | Web:      www.OpenFOAM.org                      |
|    \\/     M anipulation  |                                                 |
\*---------------------------------------------------------------------------*/
FoamFile
{
    version     2.0;
    format      ascii;
    class       IOobject;
    location    "constant";
    object      rho;
}
// * * * * * * * * * * * * * * * * * * * * * * * * * * * * * * * * * * * * * //

--> FOAM Warning : 
    From function IOobject::readHeader(Istream&)
    in file db/IOobject/IOobjectReadHeader.C at line 89
    Reading "/home/luka/OpenFOAM/luka-2.3.1/run/pizzarelliValidation/newValidation/fine/constant/h" at line 1
    First token could not be read or is not the keyword 'FoamFile'

Check header is of the form:

/*--------------------------------*- C++ -*----------------------------------*\
| =========                 |                                                 |
| \\      /  F ield         | OpenFOAM: The Open Source CFD Toolbox           |
|  \\    /   O peration     | Version:  2.3.1                                 |
|   \\  /    A nd           | Web:      www.OpenFOAM.org                      |
|    \\/     M anipulation  |                                                 |
\*---------------------------------------------------------------------------*/
FoamFile
{
    version     2.0;
    format      ascii;
    class       IOobject;
    location    "constant";
    object      h;
}
// * * * * * * * * * * * * * * * * * * * * * * * * * * * * * * * * * * * * * //

Reading uniformDimensionedVectorField g
Expression enth0.00046875 : swak4Foam: Allocating new repository for sampledGlobalVariables
 average=-822639
Expression enth0.00140625 :  average=-807902
Expression enth0.00234375 :  average=-793796
Expression enth0.00328125 :  average=-779325
Expression enth0.00421875 :  average=-764768
Expression enth0.00515625 :  average=-750248
Expression enth0.00609375 :  average=-735851
Expression enth0.00703125 :  average=-721413
Expression enth0.00796875 :  average=-706945
Expression enth0.00890625 :  average=-692501
Expression enth0.00984375 :  average=-678155
Expression enth0.01078125 :  average=-663968
Expression enth0.01171875 :  average=-649982
Expression enth0.01265625 :  average=-636226
Expression enth0.01359375 :  average=-622715
Expression enth0.01453125 :  average=-609454
Expression enth0.01546875 :  average=-596442
Expression enth0.01640625 :  average=-583670
Expression enth0.01734375 :  average=-571131
Expression enth0.01828125 :  average=-558813
Expression enth0.01921875 :  average=-546708
Expression enth0.02015625 :  average=-534800
Expression enth0.02109375 :  average=-523086
Expression enth0.02203125 :  average=-511549
Expression enth0.02296875 :  average=-500202
Expression enth0.02390625 :  average=-489011
Expression enth0.02484375 :  average=-478028
Expression enth0.02578125 :  average=-467160
Expression enth0.02671875 :  average=-456590
Expression enth0.02765625 :  average=-445865
Expression enth0.02859375 :  average=-436606
Expression enth0.02953125 :  average=-419963
Expression temp0.00046875 :  average=133.129
Expression temp0.00140625 :  average=136.91
Expression temp0.00234375 :  average=140.545
Expression temp0.00328125 :  average=144.279
Expression temp0.00421875 :  average=148.031
Expression temp0.00515625 :  average=151.766
Expression temp0.00609375 :  average=155.458
Expression temp0.00703125 :  average=159.142
Expression temp0.00796875 :  average=162.781
Expression temp0.00890625 :  average=166.325
Expression temp0.00984375 :  average=169.731
Expression temp0.01078125 :  average=172.977
Expression temp0.01171875 :  average=176.054
Expression temp0.01265625 :  average=178.964
Expression temp0.01359375 :  average=181.715
Expression temp0.01453125 :  average=184.318
Expression temp0.01546875 :  average=186.788
Expression temp0.01640625 :  average=189.141
Expression temp0.01734375 :  average=191.394
Expression temp0.01828125 :  average=193.565
Expression temp0.01921875 :  average=195.669
Expression temp0.02015625 :  average=197.723
Expression temp0.02109375 :  average=199.739
Expression temp0.02203125 :  average=201.731
Expression temp0.02296875 :  average=203.702
Expression temp0.02390625 :  average=205.674
Expression temp0.02484375 :  average=207.628
Expression temp0.02578125 :  average=209.616
Expression temp0.02671875 :  average=211.55
Expression temp0.02765625 :  average=213.634
Expression temp0.02859375 :  average=215.316
Expression temp0.02953125 :  average=218.948
Expression outletTemperature :  average=218.779

End

